<configuration>
    <input>
        <net-file value="network.net.xml"/>
        <route-files value="routes.rou.xml"/>
		<vtype-files value="types.xml"/>
    </input>
</configuration>
